
  EPA STORM WATER MANAGEMENT MODEL - VERSION 5.1 (Build 5.1.013)
  --------------------------------------------------------------

  test            
  
  WARNING 03: negative offset ignored for Link C1
  WARNING 03: negative offset ignored for Link C1
  WARNING 03: negative offset ignored for Link C2
  WARNING 03: negative offset ignored for Link C2
  WARNING 03: negative offset ignored for Link C3
  WARNING 03: negative offset ignored for Link C3
  WARNING 03: negative offset ignored for Link C4
  WARNING 03: negative offset ignored for Link C4
  WARNING 03: negative offset ignored for Link C5
  WARNING 03: negative offset ignored for Link C5
  WARNING 03: negative offset ignored for Link C6
  WARNING 03: negative offset ignored for Link C6
  WARNING 03: negative offset ignored for Link C7
  WARNING 03: negative offset ignored for Link C7
  WARNING 03: negative offset ignored for Link C8
  WARNING 03: negative offset ignored for Link C8
  WARNING 03: negative offset ignored for Link C9
  WARNING 03: negative offset ignored for Link C9
  WARNING 03: negative offset ignored for Link C10
  WARNING 03: negative offset ignored for Link C10
  WARNING 03: negative offset ignored for Link C11
  WARNING 03: negative offset ignored for Link C11
  WARNING 03: negative offset ignored for Link C12
  WARNING 03: negative offset ignored for Link C12
  WARNING 03: negative offset ignored for Link C13
  WARNING 03: negative offset ignored for Link C13
  WARNING 03: negative offset ignored for Link C14
  WARNING 03: negative offset ignored for Link C14
  WARNING 03: negative offset ignored for Link C15
  WARNING 03: negative offset ignored for Link C15
  WARNING 03: negative offset ignored for Link C16
  WARNING 03: negative offset ignored for Link C16
  WARNING 03: negative offset ignored for Link C17
  WARNING 03: negative offset ignored for Link C17
  WARNING 03: negative offset ignored for Link C18
  WARNING 03: negative offset ignored for Link C18
  WARNING 03: negative offset ignored for Link C19
  WARNING 03: negative offset ignored for Link C19
  WARNING 03: negative offset ignored for Link C20
  WARNING 03: negative offset ignored for Link C20
  WARNING 03: negative offset ignored for Link C21
  WARNING 03: negative offset ignored for Link C21
  WARNING 03: negative offset ignored for Link C22
  WARNING 03: negative offset ignored for Link C22
  WARNING 03: negative offset ignored for Link C23
  WARNING 03: negative offset ignored for Link C23
  WARNING 03: negative offset ignored for Link C24
  WARNING 03: negative offset ignored for Link C24
  WARNING 03: negative offset ignored for Link C25
  WARNING 03: negative offset ignored for Link C25
  WARNING 03: negative offset ignored for Link C26
  WARNING 03: negative offset ignored for Link C26
  WARNING 03: negative offset ignored for Link C27
  WARNING 03: negative offset ignored for Link C27
  WARNING 03: negative offset ignored for Link C28
  WARNING 03: negative offset ignored for Link C28
  WARNING 03: negative offset ignored for Link C29
  WARNING 03: negative offset ignored for Link C29
  WARNING 03: negative offset ignored for Link C30
  WARNING 03: negative offset ignored for Link C30
  WARNING 03: negative offset ignored for Link C31
  WARNING 03: negative offset ignored for Link C31
  WARNING 03: negative offset ignored for Link C32
  WARNING 03: negative offset ignored for Link C32
  WARNING 03: negative offset ignored for Link C33
  WARNING 03: negative offset ignored for Link C33
  WARNING 03: negative offset ignored for Link C34
  WARNING 03: negative offset ignored for Link C34
  WARNING 03: negative offset ignored for Link C35
  WARNING 03: negative offset ignored for Link C35
  WARNING 03: negative offset ignored for Link C36
  WARNING 03: negative offset ignored for Link C36
  WARNING 03: negative offset ignored for Link C37
  WARNING 03: negative offset ignored for Link C37
  WARNING 03: negative offset ignored for Link C38
  WARNING 03: negative offset ignored for Link C38
  WARNING 03: negative offset ignored for Link C39
  WARNING 03: negative offset ignored for Link C39
  WARNING 03: negative offset ignored for Link C40
  WARNING 03: negative offset ignored for Link C40
  WARNING 03: negative offset ignored for Link C41
  WARNING 03: negative offset ignored for Link C41
  WARNING 03: negative offset ignored for Link C42
  WARNING 03: negative offset ignored for Link C42
  WARNING 03: negative offset ignored for Link C43
  WARNING 03: negative offset ignored for Link C43
  WARNING 03: negative offset ignored for Link C44
  WARNING 03: negative offset ignored for Link C44
  WARNING 03: negative offset ignored for Link C45
  WARNING 03: negative offset ignored for Link C45
  WARNING 03: negative offset ignored for Link C46
  WARNING 03: negative offset ignored for Link C46
  WARNING 03: negative offset ignored for Link C47
  WARNING 03: negative offset ignored for Link C47
  WARNING 03: negative offset ignored for Link C48
  WARNING 03: negative offset ignored for Link C48
  WARNING 03: negative offset ignored for Link C49
  WARNING 03: negative offset ignored for Link C49
  WARNING 03: negative offset ignored for Link C50
  WARNING 03: negative offset ignored for Link C50
  WARNING 03: negative offset ignored for Link C51
  WARNING 03: negative offset ignored for Link C51
  WARNING 03: negative offset ignored for Link C52
  WARNING 03: negative offset ignored for Link C52
  WARNING 03: negative offset ignored for Link C53
  WARNING 03: negative offset ignored for Link C53
  WARNING 03: negative offset ignored for Link C54
  WARNING 03: negative offset ignored for Link C54
  WARNING 03: negative offset ignored for Link C55
  WARNING 03: negative offset ignored for Link C55
  WARNING 03: negative offset ignored for Link C56
  WARNING 03: negative offset ignored for Link C56
  WARNING 03: negative offset ignored for Link C57
  WARNING 03: negative offset ignored for Link C57
  WARNING 03: negative offset ignored for Link C58
  WARNING 03: negative offset ignored for Link C58
  WARNING 03: negative offset ignored for Link C59
  WARNING 03: negative offset ignored for Link C59
  WARNING 03: negative offset ignored for Link C60
  WARNING 03: negative offset ignored for Link C60
  WARNING 03: negative offset ignored for Link C61
  WARNING 03: negative offset ignored for Link C61
  WARNING 03: negative offset ignored for Link C62
  WARNING 03: negative offset ignored for Link C62
  WARNING 03: negative offset ignored for Link C63
  WARNING 03: negative offset ignored for Link C63
  WARNING 03: negative offset ignored for Link C64
  WARNING 03: negative offset ignored for Link C64
  WARNING 03: negative offset ignored for Link C65
  WARNING 03: negative offset ignored for Link C65
  WARNING 03: negative offset ignored for Link C66
  WARNING 03: negative offset ignored for Link C66
  WARNING 03: negative offset ignored for Link C67
  WARNING 03: negative offset ignored for Link C67
  WARNING 03: negative offset ignored for Link C68
  WARNING 03: negative offset ignored for Link C68
  WARNING 03: negative offset ignored for Link C69
  WARNING 03: negative offset ignored for Link C69
  WARNING 03: negative offset ignored for Link C70
  WARNING 03: negative offset ignored for Link C70
  WARNING 08: elevation drop exceeds length for Conduit C70
  WARNING 03: negative offset ignored for Link C71
  WARNING 03: negative offset ignored for Link C71
  WARNING 08: elevation drop exceeds length for Conduit C71
  WARNING 03: negative offset ignored for Link C72
  WARNING 03: negative offset ignored for Link C72
  WARNING 03: negative offset ignored for Link C73
  WARNING 03: negative offset ignored for Link C73
  WARNING 03: negative offset ignored for Link C74
  WARNING 03: negative offset ignored for Link C74
  WARNING 03: negative offset ignored for Link W1
  WARNING 10: crest elevation raised to downstream invert for regulator Link W1
  WARNING 03: negative offset ignored for Link R1
  WARNING 10: crest elevation raised to downstream invert for regulator Link R1
  WARNING 03: negative offset ignored for Link T1
  WARNING 02: maximum depth increased for Node J3
  WARNING 02: maximum depth increased for Node J5
  WARNING 02: maximum depth increased for Node J9
  WARNING 02: maximum depth increased for Node J11
  WARNING 02: maximum depth increased for Node J15
  WARNING 02: maximum depth increased for Node J17
  WARNING 02: maximum depth increased for Node J18
  WARNING 02: maximum depth increased for Node J21
  WARNING 02: maximum depth increased for Node J24
  WARNING 02: maximum depth increased for Node J25
  
  *********************************************************
  NOTE: The summary statistics displayed in this report are
  based on results found at every computational time step,  
  not just on results from each reporting time step.
  *********************************************************
  
  ****************
  Analysis Options
  ****************
  Flow Units ............... CMS
  Process Models:
    Rainfall/Runoff ........ NO
    RDII ................... NO
    Snowmelt ............... NO
    Groundwater ............ NO
    Flow Routing ........... YES
    Ponding Allowed ........ YES
    Water Quality .......... NO
  Flow Routing Method ...... DYNWAVE
  Surcharge Method ......... EXTRAN
  Starting Date ............ 01/01/2017 00:00:00
  Ending Date .............. 01/01/2017 02:30:00
  Antecedent Dry Days ...... 10.0
  Report Time Step ......... 00:05:00
  Routing Time Step ........ 2.00 sec
  Variable Time Step ....... YES
  Maximum Trials ........... 8
  Number of Threads ........ 1
  Head Tolerance ........... 0.001524 m
  
  
  **************************        Volume        Volume
  Flow Routing Continuity        hectare-m      10^6 ltr
  **************************     ---------     ---------
  Dry Weather Inflow .......         0.013         0.135
  Wet Weather Inflow .......         0.000         0.000
  Groundwater Inflow .......         0.000         0.000
  RDII Inflow ..............         0.000         0.000
  External Inflow ..........         0.206         2.062
  External Outflow .........         0.080         0.804
  Flooding Loss ............         0.131         1.309
  Evaporation Loss .........         0.000         0.000
  Exfiltration Loss ........         0.000         0.000
  Initial Stored Volume ....         0.000         0.000
  Final Stored Volume ......         0.007         0.071
  Continuity Error (%) .....         0.570
  
  
  *************************
  Highest Continuity Errors
  *************************
  Node D1 (2.78%)
  Node J38 (2.26%)
  Node J60 (2.25%)
  Node J43 (2.12%)
  Node S1 (1.83%)
  
  
  ***************************
  Time-Step Critical Elements
  ***************************
  None
  
  
  ********************************
  Highest Flow Instability Indexes
  ********************************
  Link T1 (100)
  Link C74 (98)
  Link C57 (98)
  Link C54 (96)
  Link C56 (80)
  
  
  *************************
  Routing Time Step Summary
  *************************
  Minimum Time Step           :     0.50 sec
  Average Time Step           :     2.00 sec
  Maximum Time Step           :     2.00 sec
  Percent in Steady State     :     0.00
  Average Iterations per Step :     2.68
  Percent Not Converging      :     0.04
  
  
  ******************
  Node Depth Summary
  ******************
  
  ---------------------------------------------------------------------------------
                                 Average  Maximum  Maximum  Time of Max    Reported
                                   Depth    Depth      HGL   Occurrence   Max Depth
  Node                 Type       Meters   Meters   Meters  days hr:min      Meters
  ---------------------------------------------------------------------------------
  J1                   JUNCTION     0.02     0.05    44.74     0  00:00        0.05
  J2                   JUNCTION     0.05     0.11    43.64     0  00:35        0.11
  J3                   JUNCTION     0.05     0.10    42.62     0  00:35        0.10
  J4                   JUNCTION     0.09     0.23    41.34     0  00:35        0.23
  J5                   JUNCTION     0.03     0.07    39.78     0  00:35        0.07
  J6                   JUNCTION     0.07     0.16    38.08     0  00:35        0.16
  J7                   JUNCTION     0.01     0.04    36.54     0  00:35        0.04
  J8                   JUNCTION     0.07     0.17    33.30     0  00:35        0.17
  J9                   JUNCTION     0.05     0.11    36.56     0  00:35        0.11
  J10                  JUNCTION     0.00     0.00    39.95     0  01:29        0.00
  J11                  JUNCTION     0.03     0.06    37.55     0  00:35        0.06
  J12                  JUNCTION     0.08     0.17    33.30     0  00:35        0.17
  J13                  JUNCTION     0.11     0.27    31.75     0  00:35        0.27
  J14                  JUNCTION     1.33     1.40    43.67     0  00:07        1.40
  J15                  JUNCTION     0.01     0.02    45.72     0  00:35        0.02
  J16                  JUNCTION     0.01     0.01    39.30     0  00:48        0.01
  J17                  JUNCTION     0.03     0.04    38.20     0  00:35        0.04
  J18                  JUNCTION     0.00     0.00    42.77     0  01:23        0.00
  J19                  JUNCTION     0.01     0.01    39.92     0  01:03        0.01
  J20                  JUNCTION     0.02     0.05    44.85     0  00:35        0.05
  J21                  JUNCTION     0.02     0.05    44.92     0  00:35        0.05
  J22                  JUNCTION     0.01     0.03    43.56     0  00:35        0.03
  J23                  JUNCTION     0.03     0.06    42.39     0  00:35        0.06
  J24                  JUNCTION     0.02     0.05    41.15     0  00:35        0.05
  J25                  JUNCTION     0.02     0.05    39.92     0  00:35        0.05
  J26                  JUNCTION     0.05     0.12    38.68     0  00:35        0.12
  J27                  JUNCTION     0.03     0.06    37.37     0  00:35        0.06
  J28                  JUNCTION     0.01     0.01    37.11     0  00:04        0.01
  J29                  JUNCTION     0.01     0.03    42.42     0  00:35        0.03
  J30                  JUNCTION     0.03     0.07    38.25     0  00:35        0.07
  J31                  JUNCTION     0.04     0.08    40.44     0  00:35        0.08
  J32                  JUNCTION     0.04     0.08    41.56     0  00:35        0.08
  J33                  JUNCTION     0.08     0.18    37.80     0  00:35        0.18
  J34                  JUNCTION     0.06     0.12    38.07     0  00:35        0.12
  J35                  JUNCTION     0.03     0.05    42.09     0  00:35        0.05
  J36                  JUNCTION     0.02     0.04    38.45     0  00:35        0.04
  J37                  JUNCTION     0.05     0.10    38.22     0  00:35        0.10
  J38                  JUNCTION     1.56     1.70    36.02     0  00:13        1.70
  J39                  JUNCTION     0.05     0.11    36.39     0  00:35        0.11
  J40                  JUNCTION     0.09     0.20    34.82     0  00:35        0.20
  J41                  JUNCTION     0.03     0.06    33.00     0  00:35        0.06
  J42                  JUNCTION     0.01     0.01    35.82     0  00:24        0.01
  J43                  JUNCTION     0.02     0.02    33.08     0  02:10        0.02
  J44                  JUNCTION     0.12     0.30    37.59     0  00:35        0.29
  J45                  JUNCTION     0.05     0.10    37.12     0  00:35        0.10
  J46                  JUNCTION     0.04     0.09    35.85     0  00:35        0.09
  J47                  JUNCTION     0.06     0.14    34.40     0  00:35        0.14
  J48                  JUNCTION     0.07     0.14    32.32     0  00:35        0.14
  J49                  JUNCTION     0.04     0.09    31.33     0  00:35        0.09
  J50                  JUNCTION     0.08     0.19    32.74     0  00:35        0.19
  J51                  JUNCTION     0.06     0.13    31.36     0  00:35        0.13
  J52                  JUNCTION     0.01     0.01    29.29     0  00:35        0.01
  J53                  JUNCTION     0.10     0.23    29.15     0  00:34        0.23
  J54                  JUNCTION     0.14     0.41    30.00     0  00:36        0.40
  J55                  JUNCTION     0.03     0.06    31.65     0  00:35        0.06
  J56                  JUNCTION     0.04     0.08    38.53     0  00:35        0.08
  J57                  JUNCTION     0.06     0.13    35.86     0  00:35        0.13
  J58                  JUNCTION     0.02     0.05    31.63     0  00:35        0.05
  J59                  JUNCTION     0.04     0.09    34.49     0  00:35        0.09
  J60                  JUNCTION     3.21     3.55    33.41     0  00:14        3.55
  J61                  JUNCTION     0.00     0.00    29.98     0  01:01        0.00
  J62                  JUNCTION     0.02     0.05    30.05     0  00:35        0.05
  J63                  JUNCTION     0.03     0.06    30.12     0  00:35        0.06
  J64                  JUNCTION     0.01     0.02    38.20     0  00:35        0.02
  J65                  JUNCTION     0.02     0.04    32.98     0  00:35        0.04
  J66                  JUNCTION     0.05     0.10    33.61     0  00:35        0.10
  O1                   OUTFALL      0.10     0.23    28.06     0  00:34        0.23
  O2                   OUTFALL      0.00     0.00    25.68     0  00:03        0.00
  O3                   OUTFALL      0.00     0.01    34.01     0  00:35        0.01
  O4                   OUTFALL      0.02     0.04    30.04     0  00:35        0.04
  D1                   DIVIDER      0.37     0.40    28.40     0  00:12        0.40
  S1                   STORAGE      2.20     3.50    29.97     0  00:17        3.50
  
  
  *******************
  Node Inflow Summary
  *******************
  
  -------------------------------------------------------------------------------------------------
                                  Maximum  Maximum                  Lateral       Total        Flow
                                  Lateral    Total  Time of Max      Inflow      Inflow     Balance
                                   Inflow   Inflow   Occurrence      Volume      Volume       Error
  Node                 Type           CMS      CMS  days hr:min    10^6 ltr    10^6 ltr     Percent
  -------------------------------------------------------------------------------------------------
  J1                   JUNCTION     0.010    0.010     0  00:00      0.0349      0.0349      -0.116
  J2                   JUNCTION     0.046    0.056     0  00:35       0.114       0.149       0.124
  J3                   JUNCTION     0.000    0.057     0  00:35     0.00189       0.153       0.216
  J4                   JUNCTION     0.049    0.106     0  00:35       0.122       0.274       0.139
  J5                   JUNCTION     0.000    0.106     0  00:35     0.00189       0.277       0.083
  J6                   JUNCTION     0.045    0.071     0  00:35       0.112       0.177       0.168
  J7                   JUNCTION     0.010    0.081     0  00:35      0.0261       0.205       0.121
  J8                   JUNCTION     0.035    0.116     0  00:35      0.0879       0.293       0.452
  J9                   JUNCTION     0.000    0.081     0  00:35     0.00189       0.213       0.155
  J10                  JUNCTION     0.000    0.000     0  00:00     0.00189     0.00189       0.181
  J11                  JUNCTION     0.019    0.027     0  00:35      0.0487      0.0824       0.169
  J12                  JUNCTION     0.045    0.153     0  00:35       0.111       0.408       0.171
  J13                  JUNCTION     0.009    0.162     0  00:35      0.0235       0.431       0.149
  J14                  JUNCTION     0.020    0.020     0  00:34      0.0492      0.0492       1.319
  J15                  JUNCTION     0.027    0.027     0  00:34      0.0678      0.0678       0.336
  J16                  JUNCTION     0.000    0.001     0  00:44     0.00189     0.00584       0.909
  J17                  JUNCTION     0.018    0.018     0  00:34      0.0466      0.0527       0.215
  J18                  JUNCTION     0.000    0.000     0  00:00     0.00189     0.00189       0.448
  J19                  JUNCTION     0.000    0.000     0  00:00     0.00189     0.00189       1.483
  J20                  JUNCTION     0.015    0.015     0  00:34      0.0373      0.0373       0.091
  J21                  JUNCTION     0.000    0.027     0  00:35     0.00189      0.0694       1.329
  J22                  JUNCTION     0.030    0.046     0  00:35      0.0751       0.114       0.144
  J23                  JUNCTION     0.000    0.046     0  00:35     0.00189       0.115       0.476
  J24                  JUNCTION     0.000    0.027     0  00:35     0.00189      0.0693       0.099
  J25                  JUNCTION     0.000    0.028     0  00:35     0.00189      0.0711       0.255
  J26                  JUNCTION     0.039    0.051     0  00:35      0.0976       0.128       0.153
  J27                  JUNCTION     0.000    0.051     0  00:35     0.00189        0.13       0.211
  J28                  JUNCTION     0.000    0.000     0  00:00     0.00189     0.00189       0.971
  J29                  JUNCTION     0.000    0.012     0  00:35     0.00189      0.0318       0.242
  J30                  JUNCTION     0.000    0.012     0  00:35     0.00189      0.0316       0.845
  J31                  JUNCTION     0.000    0.053     0  00:35     0.00189       0.135       0.187
  J32                  JUNCTION     0.030    0.034     0  00:35      0.0759      0.0862       0.138
  J33                  JUNCTION     0.010    0.109     0  00:35      0.0248       0.276       0.315
  J34                  JUNCTION     0.034    0.046     0  00:35      0.0851       0.116       0.243
  J35                  JUNCTION     0.000    0.015     0  00:35     0.00189      0.0391       0.204
  J36                  JUNCTION     0.010    0.025     0  00:35      0.0268      0.0659       0.534
  J37                  JUNCTION     0.039    0.061     0  00:35      0.0977       0.155       0.745
  J38                  JUNCTION     0.000    0.068     0  00:35     0.00189       0.183       2.308
  J39                  JUNCTION     0.062    0.123     0  00:35       0.179       0.332       0.155
  J40                  JUNCTION     0.038    0.093     0  00:35      0.0937       0.244       0.208
  J41                  JUNCTION     0.000    0.093     0  00:35     0.00189       0.249      -0.110
  J42                  JUNCTION     0.000    0.000     0  00:00     0.00189     0.00189       0.899
  J43                  JUNCTION     0.000    0.000     0  00:24     0.00189     0.00376       2.171
  J44                  JUNCTION     0.000    0.109     0  00:35     0.00189       0.277       0.319
  J45                  JUNCTION     0.000    0.143     0  00:35     0.00189       0.366       0.122
  J46                  JUNCTION     0.000    0.063     0  00:35     0.00189       0.162       0.174
  J47                  JUNCTION     0.027    0.183     0  00:35      0.0666       0.461       0.119
  J48                  JUNCTION     0.018    0.102     0  00:35      0.0446       0.263       0.144
  J49                  JUNCTION     0.035    0.234     0  00:35      0.0864       0.588       0.119
  J50                  JUNCTION     0.005    0.188     0  00:35      0.0141       0.474       0.118
  J51                  JUNCTION     0.000    0.102     0  00:35     0.00189       0.265       0.137
  J52                  JUNCTION     0.001    0.001     0  00:34     0.00374     0.00374       0.056
  J53                  JUNCTION     0.000    0.228     0  00:33     0.00189       0.589       0.157
  J54                  JUNCTION     0.000    0.234     0  00:35     0.00189       0.589       0.467
  J55                  JUNCTION     0.000    0.032     0  00:35     0.00189      0.0678       0.097
  J56                  JUNCTION     0.019    0.034     0  00:35      0.0472      0.0875       0.134
  J57                  JUNCTION     0.061    0.094     0  00:35       0.151       0.232       0.111
  J58                  JUNCTION     0.011    0.011     0  00:34      0.0277      0.0277       0.029
  J59                  JUNCTION     0.005    0.085     0  00:35      0.0141       0.219       0.082
  J60                  JUNCTION     0.012    0.076     0  00:35      0.0317       0.375       2.302
  J61                  JUNCTION     0.000    0.000     0  00:00     0.00189     0.00189       0.132
  J62                  JUNCTION     0.000    0.116     0  00:35     0.00189       0.293       0.025
  J63                  JUNCTION     0.000    0.162     0  00:35     0.00189       0.432       0.021
  J64                  JUNCTION     0.000    0.010     0  00:35     0.00189      0.0227       0.167
  J65                  JUNCTION     0.000    0.062     0  00:35     0.00189       0.186       0.068
  J66                  JUNCTION     0.000    0.028     0  00:35     0.00189      0.0841       0.366
  O1                   OUTFALL      0.000    0.228     0  00:34     0.00189        0.59       0.000
  O2                   OUTFALL      0.000    0.000     0  00:03     0.00189      0.0024       0.000
  O3                   OUTFALL      0.000    0.011     0  00:35     0.00189      0.0242       0.000
  O4                   OUTFALL      0.000    0.062     0  00:35     0.00189       0.187       0.000
  D1                   DIVIDER      0.000    0.135     0  00:35     0.00063       0.335       2.859
  S1                   STORAGE      0.000    0.278     0  00:35     0.00189       0.728       1.861
  
  
  **********************
  Node Surcharge Summary
  **********************
  
  Surcharging occurs when water rises above the top of the highest conduit.
  ---------------------------------------------------------------------
                                               Max. Height   Min. Depth
                                   Hours       Above Crown    Below Rim
  Node                 Type      Surcharged         Meters       Meters
  ---------------------------------------------------------------------
  J14                  JUNCTION        2.38          1.220        0.000
  J38                  JUNCTION        2.28          1.300        0.000
  J60                  JUNCTION        2.26          3.235        0.000
  D1                   DIVIDER         2.29          0.000        0.000
  
  
  *********************
  Node Flooding Summary
  *********************
  
  Flooding refers to all water that overflows a node, whether it ponds or not.
  --------------------------------------------------------------------------
                                                             Total   Maximum
                                 Maximum   Time of Max       Flood    Ponded
                        Hours       Rate    Occurrence      Volume     Depth
  Node                 Flooded       CMS   days hr:min    10^6 ltr    Meters
  --------------------------------------------------------------------------
  J14                     2.38     0.019      0  00:35       0.045     0.000
  J38                     2.28     0.068      0  00:35       0.179     0.000
  J60                     2.26     0.076      0  00:35       0.366     0.000
  D1                      2.29     0.135      0  00:35       0.326     0.000
  S1                      0.75     0.233      0  00:35       0.393     0.000
  
  
  **********************
  Storage Volume Summary
  **********************
  
  --------------------------------------------------------------------------------------------------
                         Average     Avg  Evap Exfil       Maximum     Max    Time of Max    Maximum
                          Volume    Pcnt  Pcnt  Pcnt        Volume    Pcnt     Occurrence    Outflow
  Storage Unit           1000 m3    Full  Loss  Loss       1000 m3    Full    days hr:min        CMS
  --------------------------------------------------------------------------------------------------
  S1                       0.033      63     0     0         0.052     100       0  00:17      0.045
  
  
  ***********************
  Outfall Loading Summary
  ***********************
  
  -----------------------------------------------------------
                         Flow       Avg       Max       Total
                         Freq      Flow      Flow      Volume
  Outfall Node           Pcnt       CMS       CMS    10^6 ltr
  -----------------------------------------------------------
  O1                   100.00     0.066     0.228       0.590
  O2                   100.00     0.000     0.000       0.002
  O3                   100.00     0.003     0.011       0.024
  O4                   100.00     0.021     0.062       0.187
  -----------------------------------------------------------
  System               100.00     0.089     0.301       0.804
  
  
  ********************
  Link Flow Summary
  ********************
  
  -----------------------------------------------------------------------------
                                 Maximum  Time of Max   Maximum    Max/    Max/
                                  |Flow|   Occurrence   |Veloc|    Full    Full
  Link                 Type          CMS  days hr:min     m/sec    Flow   Depth
  -----------------------------------------------------------------------------
  C1                   CONDUIT     0.015     0  00:35      2.24    0.05    0.14
  C2                   CONDUIT     0.000     0  00:24      0.55    0.00    0.05
  C3                   CONDUIT     0.109     0  00:35      1.04    0.20    0.40
  C4                   CONDUIT     0.046     0  00:35      0.83    0.09    0.25
  C5                   CONDUIT     0.053     0  00:35      1.18    0.04    0.22
  C6                   CONDUIT     0.016     0  00:35      1.01    0.01    0.11
  C7                   CONDUIT     0.102     0  00:35      2.11    0.12    0.23
  C8                   CONDUIT     0.085     0  00:35      2.14    0.05    0.20
  C9                   CONDUIT     0.063     0  00:35      2.15    0.06    0.16
  C10                  CONDUIT     0.012     0  00:35      0.45    0.03    0.15
  C11                  CONDUIT     0.004     0  00:35      0.34    0.00    0.09
  C12                  CONDUIT     0.034     0  00:35      1.63    0.03    0.13
  C13                  CONDUIT     0.019     0  00:35      1.47    0.08    0.22
  C14                  CONDUIT     0.004     0  00:35      0.36    0.01    0.09
  C15                  CONDUIT     0.008     0  00:35      0.78    0.00    0.08
  C16                  CONDUIT     0.015     0  00:35      1.82    0.06    0.16
  C17                  CONDUIT     0.012     0  00:35      0.64    0.03    0.21
  C18                  CONDUIT     0.027     0  00:35      1.58    0.01    0.06
  C19                  CONDUIT     0.016     0  00:35      1.45    0.00    0.04
  C20                  CONDUIT     0.027     0  00:35      1.34    0.00    0.02
  C21                  CONDUIT     0.027     0  00:35      0.41    0.00    0.02
  C22                  CONDUIT     0.046     0  00:35      0.95    0.01    0.05
  C23                  CONDUIT     0.025     0  00:35      0.86    0.06    0.29
  C24                  CONDUIT     0.000     0  01:03      0.21    0.00    0.10
  C25                  CONDUIT     0.106     0  00:35      2.96    0.52    0.47
  C26                  CONDUIT     0.000     0  00:06      0.43    0.00    0.06
  C27                  CONDUIT     0.070     0  00:35      2.86    0.19    0.25
  C28                  CONDUIT     0.081     0  00:35      0.78    0.01    0.10
  C29                  CONDUIT     0.081     0  00:35      2.13    0.15    0.35
  C30                  CONDUIT     0.028     0  00:35      0.73    0.14    0.34
  C31                  CONDUIT     0.081     0  00:35      1.71    0.00    0.04
  C32                  CONDUIT     0.153     0  00:35      2.13    0.39    0.56
  C33                  CONDUIT     0.001     0  00:44      0.37    0.00    0.06
  C34                  CONDUIT     0.008     0  00:35      0.99    0.02    0.12
  C35                  CONDUIT     0.000     0  00:07      0.26    0.00    0.02
  C36                  CONDUIT     0.011     0  00:00      1.57    0.03    0.20
  C37                  CONDUIT     0.000     0  01:02      0.17    0.00    0.03
  C38                  CONDUIT     0.056     0  00:35      2.07    0.16    0.27
  C39                  CONDUIT     0.000     0  00:44      0.03    0.63    0.54
  C40                  CONDUIT     0.228     0  00:34      3.06    0.63    0.57
  C41                  CONDUIT     0.033     0  00:35      0.97    0.01    0.12
  C42                  CONDUIT     0.233     0  00:35      1.00    0.03    0.25
  C43                  CONDUIT     0.188     0  00:35      3.18    0.07    0.18
  C44                  CONDUIT     0.011     0  00:35      0.61    0.00    0.07
  C45                  CONDUIT     0.183     0  00:35      2.48    0.07    0.20
  C46                  CONDUIT     0.063     0  00:35      1.48    0.03    0.14
  C47                  CONDUIT     0.094     0  00:35      2.52    0.23    0.34
  C48                  CONDUIT     0.051     0  00:35      2.35    0.15    0.23
  C49                  CONDUIT     0.019     0  00:35      0.39    0.08    0.60
  C50                  CONDUIT     0.061     0  00:35      2.44    0.14    0.27
  C51                  CONDUIT     0.000     0  00:03      0.00    0.00    0.01
  C52                  CONDUIT     0.227     0  00:33      2.25    0.95    0.78
  C53                  CONDUIT     0.000     0  00:35      0.16    0.00    0.30
  C54                  CONDUIT     0.032     0  00:35      1.55    0.01    0.06
  C55                  CONDUIT     0.001     0  00:35      0.31    0.00    0.52
  C56                  CONDUIT     0.000     0  00:08      0.30    0.00    0.10
  C57                  CONDUIT     0.093     0  00:35      3.03    0.45    0.42
  C58                  CONDUIT     0.055     0  00:35      1.45    0.27    0.49
  C59                  CONDUIT     0.102     0  00:35      1.74    0.36    0.71
  C60                  CONDUIT     0.032     0  00:35      0.55    0.06    0.58
  C61                  CONDUIT     0.080     0  00:35      3.29    0.14    0.25
  C62                  CONDUIT     0.057     0  00:35      1.25    0.15    0.42
  C63                  CONDUIT     0.108     0  00:35      1.73    0.66    0.50
  C64                  CONDUIT     0.034     0  00:35      1.56    0.09    0.23
  C65                  CONDUIT     0.012     0  00:35      1.92    0.02    0.09
  C66                  CONDUIT     0.027     0  00:35      1.58    0.04    0.20
  C67                  CONDUIT     0.021     0  00:35      0.31    0.01    0.07
  C68                  CONDUIT     0.162     0  00:35      3.24    0.42    0.42
  C69                  CONDUIT     0.116     0  00:35      4.09    0.22    0.28
  C70                  CONDUIT     0.116     0  00:35      1.58    0.04    0.57
  C71                  CONDUIT     0.162     0  00:35      2.15    0.05    0.58
  C72                  CONDUIT     0.067     0  00:35      0.80    0.17    0.64
  C73                  CONDUIT     0.010     0  00:35      4.15    0.00    0.02
  C74                  CONDUIT     0.062     0  00:35      5.57    0.00    0.04
  P1                   PUMP        0.045     0  00:14              1.00
  W1                   WEIR        0.000     0  00:03                      0.00
  R1                   ORIFICE     0.010     0  00:35                      0.01
  T1                   DUMMY       0.061     0  00:35
  
  
  ***************************
  Flow Classification Summary
  ***************************
  
  -------------------------------------------------------------------------------------
                      Adjusted    ---------- Fraction of Time in Flow Class ---------- 
                       /Actual         Up    Down  Sub   Sup   Up    Down  Norm  Inlet 
  Conduit               Length    Dry  Dry   Dry   Crit  Crit  Crit  Crit  Ltd   Ctrl  
  -------------------------------------------------------------------------------------
  C1                      1.00   0.00  0.00  0.00  0.00  1.00  0.00  0.00  0.00  0.00
  C2                      1.00   0.00  0.00  0.00  0.00  1.00  0.00  0.00  0.99  0.00
  C3                      1.00   0.00  0.00  0.00  0.94  0.06  0.00  0.00  0.95  0.00
  C4                      1.00   0.00  0.00  0.00  1.00  0.00  0.00  0.00  0.99  0.00
  C5                      1.00   0.00  0.00  0.00  0.00  1.00  0.00  0.00  1.00  0.00
  C6                      1.00   0.00  0.00  0.00  0.07  0.93  0.00  0.00  1.00  0.00
  C7                      1.00   0.00  0.00  0.00  0.00  1.00  0.00  0.00  0.00  0.00
  C8                      1.00   0.00  0.00  0.00  0.00  1.00  0.00  0.00  1.00  0.00
  C9                      1.00   0.00  0.00  0.00  0.00  1.00  0.00  0.00  0.02  0.00
  C10                     1.00   0.00  0.00  0.00  1.00  0.00  0.00  0.00  1.00  0.00
  C11                     1.00   0.00  0.00  0.00  1.00  0.00  0.00  0.00  1.00  0.00
  C12                     1.00   0.00  0.00  0.00  0.00  1.00  0.00  0.00  0.91  0.00
  C13                     1.00   0.00  0.00  0.00  0.04  0.96  0.00  0.00  1.00  0.00
  C14                     1.00   0.00  0.00  0.00  1.00  0.00  0.00  0.00  0.99  0.00
  C15                     1.00   0.00  0.00  0.00  0.03  0.97  0.00  0.00  1.00  0.00
  C16                     1.00   0.00  0.00  0.00  0.00  1.00  0.00  0.00  0.95  0.00
  C17                     1.00   0.00  0.00  0.00  0.98  0.02  0.00  0.00  1.00  0.00
  C18                     1.00   0.00  0.00  0.00  0.02  0.98  0.00  0.00  0.03  0.00
  C19                     1.00   0.00  0.00  0.00  0.03  0.97  0.00  0.00  0.05  0.00
  C20                     1.00   0.00  0.00  0.00  0.04  0.96  0.00  0.00  0.94  0.00
  C21                     1.00   0.00  0.00  0.00  0.95  0.05  0.00  0.00  0.95  0.00
  C22                     1.00   0.00  0.00  0.00  0.62  0.38  0.00  0.00  1.00  0.00
  C23                     1.00   0.00  0.00  0.00  0.76  0.24  0.00  0.00  1.00  0.00
  C24                     1.00   0.00  0.00  0.00  1.00  0.00  0.00  0.00  0.98  0.00
  C25                     1.00   0.00  0.00  0.00  0.00  1.00  0.00  0.00  0.00  0.00
  C26                     1.00   0.00  0.00  0.00  0.38  0.62  0.00  0.00  0.40  0.00
  C27                     1.00   0.00  0.00  0.00  0.00  1.00  0.00  0.00  0.00  0.00
  C28                     1.00   0.00  0.00  0.00  0.97  0.03  0.00  0.00  1.00  0.00
  C29                     1.00   0.00  0.00  0.00  0.00  1.00  0.00  0.00  0.99  0.00
  C30                     1.00   0.00  0.00  0.00  0.99  0.01  0.00  0.00  0.98  0.00
  C31                     1.00   0.00  0.00  0.00  0.01  0.99  0.00  0.00  1.00  0.00
  C32                     1.00   0.00  0.00  0.00  0.00  1.00  0.00  0.00  0.98  0.00
  C33                     1.00   0.00  0.00  0.00  0.43  0.57  0.00  0.00  1.00  0.00
  C34                     1.00   0.00  0.00  0.00  0.00  1.00  0.00  0.00  1.00  0.00
  C35                     1.00   0.00  0.00  0.00  1.00  0.00  0.00  0.00  1.00  0.00
  C36                     1.00   0.00  0.00  0.00  0.80  0.20  0.00  0.00  0.99  0.00
  C37                     1.00   0.00  0.00  0.00  1.00  0.00  0.00  0.00  1.00  0.00
  C38                     1.00   0.00  0.00  0.00  0.00  1.00  0.00  0.00  0.63  0.00
  C39                     1.00   0.00  0.00  0.00  1.00  0.00  0.00  0.00  0.00  0.00
  C40                     1.00   0.00  0.00  0.00  0.00  1.00  0.00  0.00  0.10  0.00
  C41                     1.00   0.00  0.00  0.00  0.05  0.95  0.00  0.00  1.00  0.00
  C42                     1.00   0.00  0.00  0.00  0.95  0.05  0.00  0.00  0.98  0.00
  C43                     1.00   0.00  0.00  0.00  0.00  1.00  0.00  0.00  0.00  0.00
  C44                     1.00   0.00  0.00  0.00  0.92  0.08  0.00  0.00  0.94  0.00
  C45                     1.00   0.00  0.00  0.00  0.00  1.00  0.00  0.00  1.00  0.00
  C46                     1.00   0.00  0.00  0.00  0.03  0.97  0.00  0.00  1.00  0.00
  C47                     1.00   0.00  0.00  0.00  0.00  1.00  0.00  0.00  0.99  0.00
  C48                     1.00   0.00  0.00  0.00  0.00  1.00  0.00  0.00  0.00  0.00
  C49                     1.00   0.00  0.00  0.00  0.99  0.01  0.00  0.00  1.00  0.00
  C50                     1.00   0.00  0.00  0.00  0.03  0.97  0.00  0.00  0.92  0.00
  C51                     1.00   0.00  0.00  0.00  0.00  1.00  0.00  0.00  1.00  0.00
  C52                     1.00   0.00  0.00  0.00  0.03  0.97  0.00  0.00  0.03  0.00
  C53                     1.00   0.00  0.00  0.00  1.00  0.00  0.00  0.00  0.99  0.00
  C54                     1.00   0.00  0.00  0.00  0.02  0.98  0.00  0.00  0.94  0.00
  C55                     1.00   0.00  0.00  0.00  0.99  0.01  0.00  0.00  1.00  0.00
  C56                     1.00   0.00  0.00  0.00  0.97  0.03  0.00  0.00  0.40  0.00
  C57                     1.00   0.00  0.00  0.00  0.00  1.00  0.00  0.00  0.00  0.00
  C58                     1.00   0.00  0.00  0.00  0.06  0.94  0.00  0.00  1.00  0.00
  C59                     1.00   0.00  0.00  0.00  0.79  0.21  0.00  0.00  0.99  0.00
  C60                     1.00   0.00  0.00  0.00  0.98  0.02  0.00  0.00  0.99  0.00
  C61                     1.00   0.00  0.00  0.00  0.00  1.00  0.00  0.00  0.06  0.00
  C62                     1.00   0.00  0.00  0.00  0.00  1.00  0.00  0.00  0.99  0.00
  C63                     1.00   0.00  0.00  0.00  0.02  0.98  0.00  0.00  0.00  0.00
  C64                     1.00   0.00  0.00  0.00  0.00  1.00  0.00  0.00  0.92  0.00
  C65                     1.00   0.00  0.00  0.00  0.03  0.97  0.00  0.00  0.04  0.00
  C66                     1.00   0.00  0.00  0.00  0.00  1.00  0.00  0.00  1.00  0.00
  C67                     1.00   0.00  0.00  0.00  1.00  0.00  0.00  0.00  0.99  0.00
  C68                     1.00   0.00  0.00  0.00  0.00  1.00  0.00  0.00  0.00  0.00
  C69                     1.00   0.00  0.00  0.00  0.01  0.99  0.00  0.00  0.02  0.00
  C70                    15.51   0.00  0.00  0.00  0.84  0.16  0.00  0.00  0.99  0.00
  C71                    13.25   0.00  0.00  0.00  0.75  0.25  0.00  0.00  0.99  0.00
  C72                     1.00   0.00  0.00  0.00  1.00  0.00  0.00  0.00  1.00  0.00
  C73                    11.47   0.00  0.00  0.00  0.00  1.00  0.00  0.00  0.00  0.00
  C74                     5.91   0.00  0.00  0.00  0.00  1.00  0.00  0.00  0.02  0.00
  
  
  *************************
  Conduit Surcharge Summary
  *************************
  
  ----------------------------------------------------------------------------
                                                           Hours        Hours 
                         --------- Hours Full --------   Above Full   Capacity
  Conduit                Both Ends  Upstream  Dnstream   Normal Flow   Limited
  ----------------------------------------------------------------------------
  C39                         0.01      2.38      0.01      0.01         0.01
  C49                         0.01      0.01      2.26      0.01         0.01
  C52                         0.01      0.03      0.01      0.01         0.01
  C55                         0.01      0.01      2.29      0.01         0.01
  C59                         0.01      0.01      2.30      0.01         0.01
  C60                         0.01      0.01      2.29      0.01         0.01
  C70                         0.01      0.01      2.34      0.01         0.01
  C71                         0.01      0.01      2.34      0.01         0.01
  C72                         0.01      0.01      2.28      0.01         0.01
  
  
  ***************
  Pumping Summary
  ***************
  
  ---------------------------------------------------------------------------------------------------------
                                                  Min       Avg       Max     Total     Power    % Time Off
                        Percent   Number of      Flow      Flow      Flow    Volume     Usage    Pump Curve
  Pump                 Utilized   Start-Ups       CMS       CMS       CMS  10^6 ltr     Kw-hr    Low   High
  ---------------------------------------------------------------------------------------------------------
  P1                      72.88           2      0.00      0.05      0.04     0.295      3.41    0.0  100.0
  

  Analysis begun on:  Thu Apr 10 12:55:32 2025
  Analysis ended on:  Thu Apr 10 12:55:49 2025
  Total elapsed time: 00:00:17